/*--------------------------------*- C++ -*----------------------------------*\
  =========                 |
  \\      /  F ield         | OpenFOAM: The Open Source CFD Toolbox
   \\    /   O peration     | Website:  https://openfoam.org
    \\  /    A nd           | Version:  dev
     \\/     M anipulation  |
\*---------------------------------------------------------------------------*/
FoamFile
{
    format      ascii;
    class       dictionary;
    object      blockMeshDict;
}
// * * * * * * * * * * * * * * * * * * * * * * * * * * * * * * * * * * * * * //

convertToMeters 0.001;

vertices
(
( 0.0   0.0  0.0) // nó 0
(40.0   0.0  0.0) // nó 1
(22.5  47.5  0.0) // nó 2
(17.5  47.5  0.0) // nó 3
( 0.0   0.0  2.0) // nó 4
(40.0   0.0  2.0) // nó 5
(22.5  47.5  2.0) // nó 6
(17.5  47.5  2.0) // nó 7
(17.5  52.5  0.0) // nó 8
(22.5  52.5  0.0) // nó 9
(40.0 100.0  0.0) // nó 10
( 0.0 100.0  0.0) // nó 11
(17.5  52.5  2.0) // nó 12
(22.5  52.5  2.0) // nó 13
(40.0 100.0  2.0) // nó 14
( 0.0 100.0  2.0) // nó 15
);

blocks (
hex (0 1 2 3 4 5 6 7) (40 52 4)
       simpleGrading (1 ((0.5 0.5 8) (0.5 0.5 0.125)) 1)
hex (2 1 10 9 6 5 14 13) (52 100 4)
       simpleGrading (((0.5 0.5 8) (0.5 0.5 0.125)) 1 1)
hex (8 9 10 11 12 13 14 15) (40 52 4)
       simpleGrading (1 ((0.5 0.5 8) (0.5 0.5 0.125)) 1)
hex (0 3 8 11 4 7 12 15) (52 100 4)
       simpleGrading (((0.5 0.5 8) (.5 0.5 0.125)) 1 1)
);

boundary
(
    laterais
    {
        type wall;
        faces
        (
            (0 1 5 4)
            (1 10 14 5)
            (10 11 15 14)
            (11 0 4 15)
        );
    }
    top_bottom
    {
        type wall;
        faces
        (
            (0 3 2 1)
            (1 2 9 10)
            (9 8 11 10)
            (3 0 11 8)
            (4 5 6 7)
            (6 5 14 13)
            (12 13 14 15)
            (4 7 12 15)
        );
    }
    square
    {
        type wall;
        faces
        (
            (2 3 7 6)
            (2 6 13 9)
            (8 9 13 12)
            (3 8 12 7)
        );
    }/**/
);


// ************************************************************************* //
