/*--------------------------------*- C++ -*----------------------------------*\
  =========                 |
  \\      /  F ield         | OpenFOAM: The Open Source CFD Toolbox
   \\    /   O peration     | Website:  https://openfoam.org
    \\  /    A nd           | Version:  dev
     \\/     M anipulation  |
\*---------------------------------------------------------------------------*/
FoamFile
{
    format      ascii;
    class       dictionary;
    object      blockMeshDict;
}
// * * * * * * * * * * * * * * * * * * * * * * * * * * * * * * * * * * * * * //

convertToMeters 0.001;

vertices
(
( 0.0   0.0  0.0) // nó 0
(17.5   0.0  0.0) // nó 1
(22.5   0.0  0.0) // nó 2
(40.0   0.0  0.0) // nó 3
( 0.0  47.5  0.0) // nó 4
(17.5  47.5  0.0) // nó 5
(22.5  47.5  0.0) // nó 6
(40.0  47.5  0.0) // nó 7
( 0.0  52.5  0.0) // nó 8
(17.5  52.5  0.0) // nó 9
(22.5  52.5  0.0) // nó 10
(40.0  52.5  0.0) // nó 11
( 0.0 100.0  0.0) // nó 12
(17.5 100.0  0.0) // nó 13
(22.5 100.0  0.0) // nó 14
(40.0 100.0  0.0) // nó 15
( 0.0   0.0  2.0) // nó 16
(17.5   0.0  2.0) // nó 17
(22.5   0.0  2.0) // nó 18
(40.0   0.0  2.0) // nó 19
( 0.0  47.5  2.0) // nó 20
(17.5  47.5  2.0) // nó 21
(22.5  47.5  2.0) // nó 22
(40.0  47.5  2.0) // nó 23
( 0.0  52.5  2.0) // nó 24
(17.5  52.5  2.0) // nó 25
(22.5  52.5  2.0) // nó 26
(40.0  52.5  2.0) // nó 27
( 0.0 100.0  2.0) // nó 28
(17.5 100.0  2.0) // nó 29
(22.5 100.0  2.0) // nó 30
(40.0 100.0  2.0) // nó 31
);

blocks (
hex ( 0  1  5  4 16 17 21 20) (34 94 4) simpleGrading (((5 5 4.00) (5 5 0.25)) ((5 5 4.00) (5 5 0.25)) 1) // block 0
hex ( 1  2  6  5 17 18 22 21) (20 94 4) simpleGrading (1                       ((5 5 4.00) (5 5 0.25)) 1) // block 1
hex ( 2  3  7  6 18 19 23 22) (34 94 4) simpleGrading (((5 5 4.00) (5 5 0.25)) ((5 5 4.00) (5 5 0.25)) 1) // block 2
hex ( 4  5  9  8 20 21 25 24) (34 20 4) simpleGrading (((5 5 4.00) (5 5 0.25)) 1                       1) // block 3
hex ( 6  7 11 10 22 23 27 26) (34 20 4) simpleGrading (((5 5 4.00) (5 5 0.25)) 1                       1) // block 4
hex ( 8  9 13 12 24 25 29 28) (34 94 4) simpleGrading (((5 5 4.00) (5 5 0.25)) ((5 5 4.00) (5 5 0.25)) 1) // block 5
hex ( 9 10 14 13 25 26 30 29) (20 94 4) simpleGrading (1                       ((5 5 4.00) (5 5 0.25)) 1) // block 6
hex (10 11 15 14 26 27 31 30) (34 94 4) simpleGrading (((5 5 4.00) (5 5 0.25)) ((5 5 4.00) (5 5 0.25)) 1) // block 7
);

boundary
(
    laterais
    {
        type wall;
        faces
        (
            ( 0  1 17 16)
            ( 1  2 18 17)
            ( 2  3 19 18)
            ( 7  3 19 23)
            (11  7 23 27)
            (15 11 27 31)
            ( 0  4 20 16)
            ( 4  8 24 20)
            ( 8 12 28 24)
            (13 12 28 29)
            (14 13 29 30)
            (15 14 30 31)
        );
    }

    top_bottom
    {
        type wall;
        faces
        (
            ( 1  0  4  5)
            ( 2  1  5  6)
            ( 3  2  6  7)
            ( 5  4  8  9)
            ( 7  6 10 11)
            ( 9  8 12 13)
            (10  9 13 14)
            (11 10 14 15)
            (16 17 21 20)
            (17 18 22 21)
            (18 19 23 22)
            (20 21 25 24)
            (22 23 27 26)
            (24 25 29 28)
            (25 26 30 29)
            (26 27 31 30)
        );
    }

    square
    {
        type wall;
        faces
        (
            ( 6  5 21 22)
            ( 9 10 26 25)
            ( 5  9 25 21)
            (10  6 22 26)
        );
    }/**/
);


// ************************************************************************* //
